#
# ***************
# Open boundaries
# ***************
 &OBCS_PARM01
 OB_Jnorth=   800*0,
 OB_Jsouth=   800*1,
 OB_Iwest=    780*1,
 OB_Ieast=    780*-1,
#
 useOrlanskiNorth=.FALSE.,
 useOBCSsponge=.TRUE.,
 useOBCSbalance=.TRUE.,
 useOBCSprescribe=.TRUE.,
 OBCS_balanceFacW=-1,
 OBCS_balanceFacE=1,
 OBCS_balanceFacS=1,
#
# OBNuFile='OBNuFile.bin',
# OBNvFile='OBNvFile.bin',
# OBNtFile='OBNtFile.bin',
# OBNsFile='OBNsFile.bin',
#
#so_W_20000101-120000_86400_20201231-120000.bin
 OBSuFile='uo_S_20000101-120000_86400_20201231-120000.bin',
 OBSvFile='vo_S_20000101-120000_86400_20201231-120000.bin',
 OBStFile='thetao_S_20000101-120000_86400_20201231-120000.bin',
 OBSsFile='so_S_20000101-120000_86400_20201231-120000.bin',
#
 OBWuFile='uo_W_20000101-120000_86400_20201231-120000.bin',
 OBWvFile='vo_W_20000101-120000_86400_20201231-120000.bin',
 OBWtFile='thetao_W_20000101-120000_86400_20201231-120000.bin',
 OBWsFile='so_W_20000101-120000_86400_20201231-120000.bin',
#
 OBEuFile='uo_E_20000101-120000_86400_20201231-120000.bin',
 OBEvFile='vo_E_20000101-120000_86400_20201231-120000.bin',
 OBEtFile='thetao_E_20000101-120000_86400_20201231-120000.bin',
 OBEsFile='so_E_20000101-120000_86400_20201231-120000.bin',
 &

# *****************************************
# Orlanski Boundary Condition Parameters.
# *****************************************
 &OBCS_PARM02
# cvelTimeScale = 2000.,
 &
# *****************************************
# Sponge Layer Parameters.
# *****************************************
 &OBCS_PARM03
 Urelaxobcsinner=864000.E0,
 Urelaxobcsbound=43200.E0,
 Vrelaxobcsinner=864000.E0,
 Vrelaxobcsbound=43200.E0,
 spongeThickness=3,
 &

