#
# ***************
# Open boundaries
# ***************
 &OBCS_PARM01
 OB_Jnorth=   800*0,
 OB_Jsouth=   800*1,
 OB_Iwest=    780*1,
 OB_Ieast=    780*-1,
#
 useOrlanskiNorth=.FALSE.,
 useOBCSsponge=.TRUE.,
 useOBCSbalance=.FALSE.,
 useOBCSprescribe=.TRUE.,
#
# OBNuFile='OBNuFile.bin',
# OBNvFile='OBNvFile.bin',
# OBNtFile='OBNtFile.bin',
# OBNsFile='OBNsFile.bin',
#
 OBSuFile='obS_uo_20000301-120000_86400_20000331-120000.bin',
 OBSvFile='obS_vo_20000301-120000_86400_20000331-120000.bin',
 OBStFile='obS_thetao_20000301-120000_86400_20000331-120000.bin',
 OBSsFile='obS_so_20000301-120000_86400_20000331-120000.bin',
#
 OBWuFile='obW_uo_20000301-120000_86400_20000331-120000.bin',
 OBWvFile='obW_vo_20000301-120000_86400_20000331-120000.bin',
 OBWtFile='obW_thetao_20000301-120000_86400_20000331-120000.bin',
 OBWsFile='obW_so_20000301-120000_86400_20000331-120000.bin',
#
 OBEuFile='obE_uo_20000301-120000_86400_20000331-120000.bin',
 OBEvFile='obE_vo_20000301-120000_86400_20000331-120000.bin',
 OBEtFile='obE_thetao_20000301-120000_86400_20000331-120000.bin',
 OBEsFile='obE_so_20000301-120000_86400_20000331-120000.bin',
 &

# *****************************************
# Orlanski Boundary Condition Parameters.
# *****************************************
 &OBCS_PARM02
# cvelTimeScale = 2000.,
 &
# *****************************************
# Sponge Layer Parameters.
# *****************************************
 &OBCS_PARM03
 Urelaxobcsinner=864000.E0,
 Urelaxobcsbound=43200.E0,
 Vrelaxobcsinner=864000.E0,
 Vrelaxobcsbound=43200.E0,
 spongeThickness=3,
 &

